Circuit: * E:\Dropbox\Dima\Teaching courses and tutorials\Plymouth City College\1078\Coursework\LR_circuit\LTspice\1-phase_LR_circuit.asc

.OP point found by inspection.
