Circuit: * E:\Dropbox\Dima\Teaching courses and tutorials\Plymouth City College\1078\Coursework\LR_circuit\LTspice\3-phase_triangle_parallel_compensation_capacitor.asc

Direct Newton iteration for .op point succeeded.

Date: Tue Apr 09 16:49:42 2024
Total elapsed time: 0.197 seconds.

tnom = 27
temp = 27
method = modified trap
totiter = 2091
traniter = 2088
tranpoints = 1045
accept = 1045
rejected = 0
matrix size = 12
fillins = 13
solver = Normal
Matrix Compiler1: 1.23 KB object code size  0.4/0.3/[0.1]
Matrix Compiler2: 1.10 KB object code size  0.2/0.3/[0.2]

