Circuit: * E:\Dropbox\Dima\Teaching courses and tutorials\Plymouth City College\1078\Coursework\LR_circuit\LTspice\3-phase_star_parallel_compensation_capacitor.asc

Direct Newton iteration for .op point succeeded.

Date: Tue Apr 09 16:49:20 2024
Total elapsed time: 0.356 seconds.

tnom = 27
temp = 27
method = modified trap
totiter = 2153
traniter = 2150
tranpoints = 1076
accept = 1074
rejected = 2
matrix size = 13
fillins = 9
solver = Normal
Matrix Compiler1: 1.04 KB object code size  0.3/0.2/[0.1]
Matrix Compiler2: off  [0.2]/0.3/0.2

