Circuit: * E:\Dropbox\Dima\Teaching courses and tutorials\Plymouth City College\1078\Coursework\Draft1.asc

.OP point found by inspection.

Date: Tue Apr 09 12:30:21 2024
Total elapsed time: 0.244 seconds.

tnom = 27
temp = 27
method = modified trap
totiter = 2098
traniter = 2098
tranpoints = 1050
accept = 1049
rejected = 1
matrix size = 3
fillins = 0
solver = Normal
Matrix Compiler1: 50 bytes object code size  0.0/0.0/[0.0]
Matrix Compiler2: 175 bytes object code size  0.0/0.1/[0.0]

